Version 4
SHEET 1 880 680
WIRE -704 -176 -960 -176
WIRE -576 -176 -704 -176
WIRE -320 -176 -512 -176
WIRE -704 -144 -704 -176
WIRE -960 -80 -960 -176
WIRE -704 -64 -704 -80
WIRE -576 -64 -704 -64
WIRE -320 -64 -320 -176
WIRE -320 -64 -496 -64
WIRE -192 -64 -320 -64
WIRE -176 -64 -192 -64
WIRE -1600 -16 -2096 -16
WIRE -1552 -16 -1600 -16
WIRE -1376 -16 -1472 -16
WIRE -1280 -16 -1376 -16
WIRE -1248 -16 -1280 -16
WIRE -1136 -16 -1168 -16
WIRE -1104 -16 -1136 -16
WIRE -704 -16 -704 -64
WIRE -704 -16 -816 -16
WIRE -432 -16 -608 -16
WIRE -320 -16 -320 -64
WIRE -320 -16 -432 -16
WIRE -432 0 -432 -16
WIRE -704 16 -704 -16
WIRE -608 16 -608 -16
WIRE -1376 64 -1376 -16
WIRE -1280 64 -1280 -16
WIRE -2096 80 -2096 -16
WIRE -320 80 -320 -16
WIRE -176 96 -176 -64
WIRE -1136 112 -1136 -16
WIRE -1104 112 -1136 112
WIRE -608 112 -608 80
WIRE -608 112 -816 112
WIRE -432 112 -432 80
WIRE -432 112 -608 112
WIRE -432 128 -432 112
WIRE -2096 224 -2096 160
WIRE -1984 224 -1984 160
WIRE -1712 224 -1712 160
WIRE -1376 240 -1376 128
WIRE -1280 240 -1280 128
WIRE -1280 240 -1376 240
WIRE -960 240 -960 176
WIRE -960 240 -1280 240
WIRE -704 240 -704 80
WIRE -704 240 -960 240
WIRE -432 240 -432 208
WIRE -432 240 -704 240
WIRE -320 240 -320 144
WIRE -320 240 -432 240
WIRE -176 240 -176 176
WIRE -960 256 -960 240
FLAG -960 256 0
FLAG -176 240 0
FLAG -1712 224 0
FLAG -1984 224 0
FLAG -192 -64 V_out
FLAG -1600 -16 V_in
FLAG -2096 224 0
SYMBOL bv -1712 64 R0
SYMATTR InstName B1
SYMATTR Value V=15+(white(2e5*time))
SYMBOL PowerProducts\\LT1934-1 -960 48 R0
SYMATTR InstName U1
SYMBOL schottky -512 -192 R90
WINDOW 0 0 32 VBottom 2
WINDOW 3 32 32 VTop 2
SYMATTR InstName D1
SYMATTR Value CMDSH2-3
SYMATTR Description Diode
SYMATTR Type diode
SYMBOL schottky -688 80 R180
WINDOW 0 24 64 Left 2
WINDOW 3 17 6 Left 2
SYMATTR InstName D2
SYMATTR Value MBRS340
SYMATTR Description Diode
SYMATTR Type diode
SYMBOL cap -624 16 R0
SYMATTR InstName C2
SYMATTR Value 10p
SYMBOL cap -336 80 R0
SYMATTR InstName C3
SYMATTR Value 22µ
SYMBOL res -448 112 R0
SYMATTR InstName R1
SYMATTR Value 620k
SYMBOL res -448 -16 R0
SYMATTR InstName R2
SYMATTR Value 1Meg
SYMBOL ind -480 -80 R90
WINDOW 0 5 56 VBottom 2
WINDOW 3 32 56 VTop 2
SYMATTR InstName L1
SYMATTR Value 100µ
SYMATTR SpiceLine Ipk=0.26 Rser=1.59 Rpar=0 Cpar=0 mfg="Murata" pn="LQH3NPN101MMEL"
SYMBOL cap -720 -144 R0
SYMATTR InstName C4
SYMATTR Value 0.1µ
SYMBOL res -192 80 R0
SYMATTR InstName R3
SYMATTR Value 200
SYMBOL voltage -1984 64 R0
WINDOW 123 0 0 Left 0
WINDOW 39 0 0 Left 0
SYMATTR InstName V1
SYMATTR Value SINE(15 0.15 64k)
SYMBOL cap -1392 64 R0
WINDOW 3 27 47 Left 2
SYMATTR InstName C5
SYMATTR Value 100µ
SYMBOL cap -1296 64 R0
SYMATTR InstName C1
SYMATTR Value 1µ
SYMBOL res -1568 0 R270
WINDOW 0 32 56 VTop 2
WINDOW 3 0 56 VBottom 2
SYMATTR InstName R4
SYMATTR Value 0.0001
SYMBOL res -1152 -32 R90
WINDOW 0 0 56 VBottom 2
WINDOW 3 32 56 VTop 2
SYMATTR InstName R5
SYMATTR Value 0.0001
SYMBOL voltage -2096 64 R0
WINDOW 123 0 0 Left 0
WINDOW 39 0 0 Left 0
SYMATTR InstName V2
SYMATTR Value 15
TEXT -2042 416 Left 2 !.tran 0.005
